@<TRIPOS>MOLECULE
ZINC000014241081
 30 33 0 0 0
SMALL
GASTEIGER

@<TRIPOS>ATOM
      1 C           0.0000    0.0000    0.0000 C.3     1  UNL1        0.0519
      2 C           0.0000    0.0000    0.0000 C.ar    1  UNL1        0.0597
      3 N           0.0000    0.0000    0.0000 N.ar    1  UNL1       -0.2146
      4 C           0.0000    0.0000    0.0000 C.ar    1  UNL1        0.2550
      5 N           0.0000    0.0000    0.0000 N.ar    1  UNL1       -0.1733
      6 C           0.0000    0.0000    0.0000 C.ar    1  UNL1        0.2761
      7 N           0.0000    0.0000    0.0000 N.pl3   1  UNL1       -0.0847
      8 N           0.0000    0.0000    0.0000 N.ar    1  UNL1       -0.1241
      9 N           0.0000    0.0000    0.0000 N.ar    1  UNL1       -0.1981
     10 C           0.0000    0.0000    0.0000 C.ar    1  UNL1        0.0612
     11 C           0.0000    0.0000    0.0000 C.3     1  UNL1        0.0520
     12 C           0.0000    0.0000    0.0000 C.ar    1  UNL1        0.0057
     13 C           0.0000    0.0000    0.0000 C.3     1  UNL1        0.0384
     14 C           0.0000    0.0000    0.0000 C.3     1  UNL1        0.0916
     15 C           0.0000    0.0000    0.0000 C.2     1  UNL1        0.2418
     16 O           0.0000    0.0000    0.0000 O.2     1  UNL1       -0.2733
     17 N           0.0000    0.0000    0.0000 N.am    1  UNL1       -0.2040
     18 C           0.0000    0.0000    0.0000 C.3     1  UNL1        0.1296
     19 C           0.0000    0.0000    0.0000 C.3     1  UNL1        0.0656
     20 N           0.0000    0.0000    0.0000 N.3     1  UNL1       -0.2693
     21 C           0.0000    0.0000    0.0000 C.3     1  UNL1        0.1046
     22 C           0.0000    0.0000    0.0000 C.3     1  UNL1        0.1595
     23 O           0.0000    0.0000    0.0000 O.3     1  UNL1       -0.3508
     24 C           0.0000    0.0000    0.0000 C.3     1  UNL1        0.1595
     25 C           0.0000    0.0000    0.0000 C.3     1  UNL1        0.1046
     26 C           0.0000    0.0000    0.0000 C.3     1  UNL1        0.0164
     27 C           0.0000    0.0000    0.0000 C.3     1  UNL1        0.0014
     28 C           0.0000    0.0000    0.0000 C.3     1  UNL1        0.0001
     29 C           0.0000    0.0000    0.0000 C.3     1  UNL1        0.0014
     30 C           0.0000    0.0000    0.0000 C.3     1  UNL1        0.0164
@<TRIPOS>BOND
     1     1     2    1
     2     2     3   ar
     3     3     4   ar
     4     4     5   ar
     5     5     6   ar
     6     6     7    1
     7     6     8   ar
     8     8     9   ar
     9     4     9   ar
    10     9    10   ar
    11    10    11    1
    12    10    12   ar
    13     2    12   ar
    14    12    13    1
    15    13    14    1
    16    14    15    1
    17    15    16    2
    18    15    17   am
    19    17    18    1
    20    18    19    1
    21    19    20    1
    22    20    21    1
    23    21    22    1
    24    22    23    1
    25    23    24    1
    26    24    25    1
    27    20    25    1
    28    19    26    1
    29    26    27    1
    30    27    28    1
    31    28    29    1
    32    29    30    1
    33    19    30    1
